<?xml version="1.0" encoding="UTF-8"?>

<!-- generated on Mon May 13 21:10:08 2019 by SUMO Version 0.32.0
<?xml version="1.0" encoding="UTF-8"?>

<configuration xmlns:xsi="http://www.w3.org/2001/XMLSchema-instance" xsi:noNamespaceSchemaLocation="http://sumo.dlr.de/xsd/sumoConfiguration.xsd">

    <input>
        <net-file value="/home/james/Projects/gym-sumo-envs/gym_traffic/envs/config/Y-Intersection/yIntersection.net.xml"/>
        <route-files value="/home/james/Projects/gym-sumo-envs/gym_traffic/envs/config/Y-Intersection/yIntersection.rou.xml"/>
        <additional-files value="/home/james/Projects/gym-sumo-envs/gym_traffic/envs/config/Y-Intersection/yIntersection.add.xml"/>
    </input>

    <report>
        <no-warnings value="true"/>
        <no-step-log value="true"/>
    </report>

    <traci_server>
        <remote-port value="55817"/>
    </traci_server>

</configuration>
