<additional>
	<tlLogic id="gneJ1" offset="0" programID="custom" type="static">
		<phase duration="28.879" state="rrGGGg" />
		<phase duration="1.121" state="rryyyg" />
		<phase duration="28.879" state="rrrrrG" />
		<phase duration="1.121" state="rrrrry" />
		<phase duration="28.879" state="GGGrrr" />
		<phase duration="1.121" state="yyyrrr" />
	</tlLogic>
	<e1Detector file="out.xml" freq="1" friendlyPos="x" id="e1det_EW_1_0" lane="EW_1_0" length="30" pos="0"/>
    <e1Detector file="out.xml" freq="1" friendlyPos="x" id="e1det_NS_1_0" lane="NS_1_0" length="30" pos="0"/>
    <e1Detector file="out.xml" freq="1" friendlyPos="x" id="e1det_WE_1_0" lane="WE_1_0" length="30" pos="0"/>
	<e3Detector id="e3_gneJ1" freq="1" file="out.xml">
        <detEntry lane="EW_1_0" pos="53.68"/>
        <detEntry lane="NS_1_0" pos="47.78"/>
        <detEntry lane="WE_1_0" pos="53.68"/>
        <detExit lane="EW_2_0" pos="-53.68"/>
        <detExit lane="SN_2_0" pos="-47.78"/>
        <detExit lane="WE_2_0" pos="-53.68"/>
    </e3Detector>
	<edgeData file="yIntersection_traffic.dump.xml" freq="20" id="Traffic Measures" />
	<edgeData file="yIntersection_pollution.dump.xml" freq="20" id="Emission Data" type="emissions" />
	<edgeData file="yIntersection_noise.dump.xml" freq="20" id="Noise Data" type="harmonoise" />
</additional>