<additional xmlns:xsi="http://www.w3.org/2001/XMLSchema-instance" xsi:noNamespaceSchemaLocation="http://sumo.dlr.de/xsd/additional_file.xsd">
    <e1Detector file="out.xml" freq="1" friendlyPos="x" id="e1det_-468510417#1_0" lane="-468510417#1_0" length="27.959999999999997" pos="1.4155343563970746e-15"/>
    <e1Detector file="out.xml" freq="1" friendlyPos="x" id="e1det_-468510417#1_1" lane="-468510417#1_1" length="27.959999999999997" pos="1.4155343563970746e-15"/>
    <e1Detector file="out.xml" freq="1" friendlyPos="x" id="e1det_468510415#1_0" lane="468510415#1_0" length="21.79" pos="1.4155343563970746e-15"/>
    <e1Detector file="out.xml" freq="1" friendlyPos="x" id="e1det_468510415#1_1" lane="468510415#1_1" length="21.79" pos="1.4155343563970746e-15"/>
    <e1Detector file="out.xml" freq="1" friendlyPos="x" id="e1det_468510427#0_0" lane="468510427#0_0" length="28.119999999999997" pos="1.4155343563970746e-15"/>
    <e1Detector file="out.xml" freq="1" friendlyPos="x" id="e1det_468510427#0_1" lane="468510427#0_1" length="28.119999999999997" pos="1.4155343563970746e-15"/>
    <e1Detector file="out.xml" freq="1" friendlyPos="x" id="e1det_468510427#0_2" lane="468510427#0_2" length="28.119999999999997" pos="1.4155343563970746e-15"/>
    <e1Detector file="out.xml" freq="1" friendlyPos="x" id="e1det_468510427#0_3" lane="468510427#0_3" length="28.119999999999997" pos="1.4155343563970746e-15"/>
    <e1Detector file="out.xml" freq="1" friendlyPos="x" id="e1det_gneE0_0" lane="gneE0_0" length="28.59" pos="1.4155343563970746e-15"/>
    <e1Detector file="out.xml" freq="1" friendlyPos="x" id="e1det_gneE0_1" lane="gneE0_1" length="28.59" pos="1.4155343563970746e-15"/>
    <e1Detector file="out.xml" freq="1" friendlyPos="x" id="e1det_gneE0_2" lane="gneE0_2" length="28.59" pos="1.4155343563970746e-15"/>
</additional>
