<additional xmlns:xsi="http://www.w3.org/2001/XMLSchema-instance" xsi:noNamespaceSchemaLocation="http://sumo.dlr.de/xsd/additional_file.xsd">
    <e3Detector id="e3_0" freq="60" file="e3output.xml">
        <detEntry lane="e_0_0" pos="123.12"/>
        <detEntry lane="n_0_0" pos="123.12"/>
        <detEntry lane="s_0_0" pos="123.12"/>
        <detEntry lane="w_0_0" pos="123.12"/>
        <detExit lane="0_w_0" pos="-123.125"/>
        <detExit lane="0_s_0" pos="-123.125"/>
        <detExit lane="0_n_0" pos="-123.125"/>
        <detExit lane="0_e_0" pos="-123.125"/>
    </e3Detector>
</additional>
