<additional>
	<tlLogic id="gneJ1" offset="0" programID="custom" type="static">
		<phase duration="28.711" state="rrGGGg" />
		<phase duration="1.289" state="rryyyg" />
		<phase duration="28.711" state="rrrrrG" />
		<phase duration="1.289" state="rrrrry" />
		<phase duration="28.711" state="GGGrGr" />
		<phase duration="1.289" state="yyyryr" />
	</tlLogic>
	<e1Detector file="out.xml" freq="1" friendlyPos="x" id="e1det_EW_1_0" lane="EW_1_0" length="42.8" pos="-10"/>
	<e1Detector file="out.xml" freq="1" friendlyPos="x" id="e1det_EW_1_1" lane="EW_1_1" length="42.8" pos="-10"/>
	<e1Detector file="out.xml" freq="1" friendlyPos="x" id="e1det_NS_1_0" lane="NS_1_0" length="39.6" pos="-10"/>
	<e1Detector file="out.xml" freq="1" friendlyPos="x" id="e1det_WE_1_0" lane="WE_1_0" length="42.8" pos="-10"/>
	<e1Detector file="out.xml" freq="1" friendlyPos="x" id="e1det_WE_1_1" lane="WE_1_1" length="42.8" pos="-10"/>
    <e3Detector id="e3_gneJ1" freq="1" file="out.xml">
        <detEntry lane="EW_1_0" pos="46.4"/>
        <detEntry lane="NS_1_0" pos="44.80"/>
        <detEntry lane="WE_1_0" pos="46.4"/>
		<detEntry lane="WE_1_1" pos="46.4"/>
        <detEntry lane="EW_1_1" pos="46.4"/>
		<detExit lane="WE_2_0" pos="-46.4"/>
		<detExit lane="WE_2_1" pos="-46.4"/>
		<detExit lane="EW_2_0" pos="-46.4"/>
		<detExit lane="EW_2_1" pos="-46.4"/>
		<detExit lane="SN_2_0" pos="-44.80"/>
        
    </e3Detector>
	<edgeData file="tIntersection_traffic.dump.xml" freq="20" id="Traffic Measures" />
	<edgeData file="tIntersection_pollution.dump.xml" freq="20" id="Emission Data" type="emissions" />
	<edgeData file="tIntersection_noise.dump.xml" freq="20" id="Noise Data" type="harmonoise" />
	
</additional>