<additional>   
   <tlLogic id="2594721970" offset="0" programID="1" type="static">
        <phase duration="44.856" state="GGGrrr" />
        <phase duration="0.144" state="yyyrrr" />
        <phase duration="44.856" state="rrrGGG" />
        <phase duration="0.144" state="rrryyy" />
    </tlLogic>
    <tlLogic id="49759090" offset="0" programID="2" type="static">
        <phase duration="89.427" state="GGG" />
        <phase duration="0.286" state="yyy" />
        <phase duration="0.286" state="rrr" />
    </tlLogic>
    <tlLogic id="49759091" offset="0" programID="3" type="static">
        <phase duration="44.856" state="GGGG" />
        <phase duration="0.144" state="yyyy" />
        <phase duration="44.856" state="GGGG" />
        <phase duration="0.144" state="yyyy" />
    </tlLogic>
    <tlLogic id="49787926" offset="0" programID="4" type="static">
        <phase duration="44.856" state="GGG" />
        <phase duration="0.144" state="yyy" />
        <phase duration="44.856" state="GGG" />
        <phase duration="0.144" state="yyy" />
    </tlLogic>
    <tlLogic id="49787931" offset="0" programID="5" type="static">
        <phase duration="44.856" state="GGGrr" />
        <phase duration="0.144" state="yyyrr" />
        <phase duration="44.856" state="GrGGG" />
        <phase duration="0.144" state="yryyy" />
    </tlLogic>
    <tlLogic id="49787936" offset="0" programID="6" type="static">
        <phase duration="44.776" state="GgrrGG" />
        <phase duration="0.144" state="yyrryy" />
        <phase duration="44.936" state="rrGGGr" />
        <phase duration="0.144" state="rryyyr" />
    </tlLogic>
    <tlLogic id="49807115" offset="0" programID="7" type="static">
        <phase duration="89.427" state="GGGG" />
        <phase duration="0.286" state="yyyy" />
        <phase duration="0.286" state="rrrr" />
    </tlLogic>
    <tlLogic id="49831064" offset="0" programID="8" type="static">
        <phase duration="44.856" state="GrrGg" />
        <phase duration="0.144" state="yrryy" />
        <phase duration="44.856" state="rGGrr" />
        <phase duration="0.144" state="ryyrr" />
    </tlLogic>
    <tlLogic id="49831070" offset="0" programID="9" type="static">
        <phase duration="44.856" state="rrGGGg" />
        <phase duration="0.144" state="rryyyy" />
        <phase duration="44.856" state="GGGrrr" />
        <phase duration="0.144" state="yyyrrr" />
    </tlLogic>
    <tlLogic id="cluster_2399740768_2594721961" offset="0" programID="10" type="static">
        <phase duration="89.427" state="GGGG" />
        <phase duration="0.286" state="yyyy" />
        <phase duration="0.286" state="rrrr" />
    </tlLogic>
	<e1Detector file="out.xml" freq="1" friendlyPos="x" id="e1det_-50515734#0_0" lane="-50515734#0_0" length="66.83000000000001" pos="0"/>
    <e1Detector file="out.xml" freq="1" friendlyPos="x" id="e1det_130715044_0" lane="130715044_0" length="27.95" pos="0"/>
    <e1Detector file="out.xml" freq="1" friendlyPos="x" id="e1det_130715044_1" lane="130715044_1" length="27.95" pos="0"/>
    <e1Detector file="out.xml" freq="1" friendlyPos="x" id="e1det_-50515734#1_0" lane="-50515734#1_0" length="173.03" pos="0"/>
    <e1Detector file="out.xml" freq="1" friendlyPos="x" id="e1det_-6059020_0" lane="-6059020_0" length="250" pos="0"/>
    <e1Detector file="out.xml" freq="1" friendlyPos="x" id="e1det_50515734#0_0" lane="50515734#0_0" length="67.14" pos="0"/>
    <e1Detector file="out.xml" freq="1" friendlyPos="x" id="e1det_-50515736#0_0" lane="-50515736#0_0" length="79.39" pos="0"/>
    <e1Detector file="out.xml" freq="1" friendlyPos="x" id="e1det_50515731_0" lane="50515731_0" length="147.70000000000002" pos="0"/>
    <e1Detector file="out.xml" freq="1" friendlyPos="x" id="e1det_6280746_0" lane="6280746_0" length="48.43" pos="0"/>
    <e1Detector file="out.xml" freq="1" friendlyPos="x" id="e1det_-50515736#1_0" lane="-50515736#1_0" length="71.71000000000001"pos="0"/>
    <e1Detector file="out.xml" freq="1" friendlyPos="x" id="e1det_-6061634_0" lane="-6061634_0" length="250" pos="0"/>
    <e1Detector file="out.xml" freq="1" friendlyPos="x" id="e1det_-6061634_1" lane="-6061634_1" length="250" pos="0"/>
    <e1Detector file="out.xml" freq="1" friendlyPos="x" id="e1det_50515736#0_0" lane="50515736#0_0" length="79.39"pos="0"/>
    <e1Detector file="out.xml" freq="1" friendlyPos="x" id="e1det_130714953_0" lane="130714953_0" length="40.1" pos="0"/>
    <e1Detector file="out.xml" freq="1" friendlyPos="x" id="e1det_130714953_1" lane="130714953_1" length="40.1" pos="0"/>
    <e1Detector file="out.xml" freq="1" friendlyPos="x" id="e1det_589551003_0" lane="589551003_0" length="12.9"pos="0"/>
    <e1Detector file="out.xml" freq="1" friendlyPos="x" id="e1det_397298730_0" lane="397298730_0" length="16.029999999999998" pos="0"/>
    <e1Detector file="out.xml" freq="1" friendlyPos="x" id="e1det_397298730_1" lane="397298730_1" length="16.029999999999998" pos="0"/>
    <e1Detector file="out.xml" freq="1" friendlyPos="x" id="e1det_397298730_2" lane="397298730_2" length="16.029999999999998" pos="0"/>
    <e1Detector file="out.xml" freq="1" friendlyPos="x" id="e1det_gneE5_0" lane="gneE5_0" length="25.75" pos="0"/>
    <e1Detector file="out.xml" freq="1" friendlyPos="x" id="e1det_409541710_0" lane="409541710_0" length="34.93" pos="0"/>
    <e1Detector file="out.xml" freq="1" friendlyPos="x" id="e1det_409541710_1" lane="409541710_1" length="34.93" pos="0"/>
    <e1Detector file="out.xml" freq="1" friendlyPos="x" id="e1det_409541710_2" lane="409541710_2" length="34.93" pos="0"/>
    <e1Detector file="out.xml" freq="1" friendlyPos="x" id="e1det_409541710_3" lane="409541710_3" length="34.93" pos="0"/>
    <e1Detector file="out.xml" freq="1" friendlyPos="x" id="e1det_470176875_0" lane="470176875_0" length="21.689999999999998" pos="0"/>
    <e1Detector file="out.xml" freq="1" friendlyPos="x" id="e1det_470176875_1" lane="470176875_1" length="21.689999999999998" pos="0"/>
    <e1Detector file="out.xml" freq="1" friendlyPos="x" id="e1det_470176875_2" lane="470176875_2" length="21.689999999999998" pos="0"/>
    <e1Detector file="out.xml" freq="1" friendlyPos="x" id="e1det_470176875_3" lane="470176875_3" length="21.689999999999998" pos="0"/>
    <e1Detector file="out.xml" freq="1" friendlyPos="x" id="e1det_6054631-AddedOffRampEdge_0" lane="6054631-AddedOffRampEdge_0" length="91.59"pos="0"/>
    <e1Detector file="out.xml" freq="1" friendlyPos="x" id="e1det_6054631-AddedOffRampEdge_1" lane="6054631-AddedOffRampEdge_1" length="91.59"pos="0"/>
    <e1Detector file="out.xml" freq="1" friendlyPos="x" id="e1det_6054631-AddedOffRampEdge_2" lane="6054631-AddedOffRampEdge_2" length="91.59"pos="0"/>
    <e1Detector file="out.xml" freq="1" friendlyPos="x" id="e1det_6056826_0" lane="6056826_0" length="46.3" pos="0"/>
    <e1Detector file="out.xml" freq="1" friendlyPos="x" id="e1det_6062713_0" lane="6062713_0" length="44.6" pos="0"/>
    <e1Detector file="out.xml" freq="1" friendlyPos="x" id="e1det_6062713_1" lane="6062713_1" length="44.6" pos="0"/>
	<edgeData file="DCMed_traffic.dump.xml" freq="20" id="Traffic Measures" />
	<edgeData file="DCMed_pollution.dump.xml" freq="20" id="Emission Data" type="emissions" />
	<edgeData file="DCMed_noise.dump.xml" freq="20" id="Noise Data" type="harmonoise" />
</additional>